Questionable use of curly braces in ".model sir870adp vdmos(rg=3 vto=2.9 rd=3.2m rs=1.5m rb={m} kp=100 mtriode=1.85 cgdmax=1.4n cgdmin=70p cgs=2.9n cjo=3.6n m=.4 a=.7 vj=.7 lambda=20m is=3p ksubthres=.08 mfg=siliconix vds=100 ron=5.5m qg=53.5n)"
    Error: undefined symbol in: "[m]"
Circuit: * C:\D Contents\Personal\Master\Semester 2\Analog circuits and Sensors\LTSPICE\Final sub mission\Owais\project 1\CM_sim.asc

Model "x1:pm": Oxide thickness thinner than recommended for a level 1 MOSFET.
Instance "m:x1:9": Length shorter than recommended for a level 1 MOSFET.
Instance "m:x1:9": Width narrower than recommended for a level 1 MOSFET.
Instance "m:x1:6": Length shorter than recommended for a level 1 MOSFET.
Instance "m:x1:4": Length shorter than recommended for a level 1 MOSFET.
Instance "m:x1:4": Width narrower than recommended for a level 1 MOSFET.
Instance "m:x1:11": Length shorter than recommended for a level 1 MOSFET.
Instance "m:x1:11": Width narrower than recommended for a level 1 MOSFET.
Instance "m:x1:10": Length shorter than recommended for a level 1 MOSFET.
Instance "m:x1:10": Width narrower than recommended for a level 1 MOSFET.
Instance "m:x1:12": Length shorter than recommended for a level 1 MOSFET.
Instance "m:x1:12": Width narrower than recommended for a level 1 MOSFET.
Instance "m:x1:13": Length shorter than recommended for a level 1 MOSFET.
Instance "m:x1:13": Width narrower than recommended for a level 1 MOSFET.
Instance "m:x1:3": Length shorter than recommended for a level 1 MOSFET.
Instance "m:x1:3": Width narrower than recommended for a level 1 MOSFET.
Model "x1:nm": Oxide thickness thinner than recommended for a level 1 MOSFET.
Instance "m:x1:7": Length shorter than recommended for a level 1 MOSFET.
Instance "m:x1:5": Length shorter than recommended for a level 1 MOSFET.
Instance "m:x1:5": Width narrower than recommended for a level 1 MOSFET.
Instance "m:x1:2": Length shorter than recommended for a level 1 MOSFET.
Instance "m:x1:2": Width narrower than recommended for a level 1 MOSFET.
Instance "m:x1:1": Length shorter than recommended for a level 1 MOSFET.
Instance "m:x1:1": Width narrower than recommended for a level 1 MOSFET.
Instance "m:x1:14": Length shorter than recommended for a level 1 MOSFET.
Instance "m:x1:14": Width narrower than recommended for a level 1 MOSFET.
Instance "m:x1:8": Length shorter than recommended for a level 1 MOSFET.
Instance "m:x1:8": Width narrower than recommended for a level 1 MOSFET.
Direct Newton iteration for .op point succeeded.

Date: Sat Jul 26 17:01:07 2025
Total elapsed time: 0.109 seconds.

tnom = 27
temp = 27
method = trap
totiter = 1904
traniter = 0
tranpoints = 0
accept = 0
rejected = 0
matrix size = 16
fillins = 4
solver = Normal
Matrix Compiler1: 1.91 KB object code size  0.5/0.3/[0.2]
Matrix Compiler2: 1.98 KB object code size  0.3/0.3/[0.2]


